<?xml version="1.0" encoding="UTF-8"?>

<!-- generated on 2025-04-13 01:19:27 by Eclipse SUMO netconvert Version 1.22.0
<netconvertConfiguration xmlns:xsi="http://www.w3.org/2001/XMLSchema-instance" xsi:noNamespaceSchemaLocation="http://sumo.dlr.de/xsd/netconvertConfiguration.xsd">

    <input>
        <node-files value="E:/Multi_agent_system DL project/sumo_training\delivery_grid.nod.xml"/>
        <edge-files value="E:/Multi_agent_system DL project/sumo_training\delivery_grid.edg.xml"/>
    </input>

    <output>
        <output-file value="E:/Multi_agent_system DL project/sumo_training\delivery_grid.net.xml"/>
    </output>

    <junctions>
        <no-turnarounds value="true"/>
    </junctions>

</netconvertConfiguration>
-->

<net version="1.20" junctionCornerDetail="5" limitTurnSpeed="5.50" xmlns:xsi="http://www.w3.org/2001/XMLSchema-instance" xsi:noNamespaceSchemaLocation="http://sumo.dlr.de/xsd/net_file.xsd">

    <location netOffset="0.00,0.00" convBoundary="0.00,0.00,1000.00,1000.00" origBoundary="0.00,0.00,1000.00,1000.00" projParameter="!"/>

    <edge id=":n0_1_0" function="internal">
        <lane id=":n0_1_0_0" index="0" speed="6.51" length="9.03" shape="1.60,92.80 1.95,95.25 3.00,97.00 4.75,98.05 7.20,98.40"/>
    </edge>
    <edge id=":n0_1_1" function="internal">
        <lane id=":n0_1_1_0" index="0" speed="13.89" length="11.20" shape="1.60,92.80 1.60,104.00"/>
    </edge>
    <edge id=":n0_10_0" function="internal">
        <lane id=":n0_10_0_0" index="0" speed="3.90" length="2.58" shape="1.60,996.80 1.70,997.50 2.00,998.00 2.50,998.30 3.20,998.40"/>
    </edge>
    <edge id=":n0_2_0" function="internal">
        <lane id=":n0_2_0_0" index="0" speed="6.51" length="9.03" shape="1.60,192.80 1.95,195.25 3.00,197.00 4.75,198.05 7.20,198.40"/>
    </edge>
    <edge id=":n0_2_1" function="internal">
        <lane id=":n0_2_1_0" index="0" speed="13.89" length="11.20" shape="1.60,192.80 1.60,204.00"/>
    </edge>
    <edge id=":n0_3_0" function="internal">
        <lane id=":n0_3_0_0" index="0" speed="6.51" length="9.03" shape="1.60,292.80 1.95,295.25 3.00,297.00 4.75,298.05 7.20,298.40"/>
    </edge>
    <edge id=":n0_3_1" function="internal">
        <lane id=":n0_3_1_0" index="0" speed="13.89" length="11.20" shape="1.60,292.80 1.60,304.00"/>
    </edge>
    <edge id=":n0_4_0" function="internal">
        <lane id=":n0_4_0_0" index="0" speed="6.51" length="9.03" shape="1.60,392.80 1.95,395.25 3.00,397.00 4.75,398.05 7.20,398.40"/>
    </edge>
    <edge id=":n0_4_1" function="internal">
        <lane id=":n0_4_1_0" index="0" speed="13.89" length="11.20" shape="1.60,392.80 1.60,404.00"/>
    </edge>
    <edge id=":n0_5_0" function="internal">
        <lane id=":n0_5_0_0" index="0" speed="6.51" length="9.03" shape="1.60,492.80 1.95,495.25 3.00,497.00 4.75,498.05 7.20,498.40"/>
    </edge>
    <edge id=":n0_5_1" function="internal">
        <lane id=":n0_5_1_0" index="0" speed="13.89" length="11.20" shape="1.60,492.80 1.60,504.00"/>
    </edge>
    <edge id=":n0_6_0" function="internal">
        <lane id=":n0_6_0_0" index="0" speed="6.51" length="9.03" shape="1.60,592.80 1.95,595.25 3.00,597.00 4.75,598.05 7.20,598.40"/>
    </edge>
    <edge id=":n0_6_1" function="internal">
        <lane id=":n0_6_1_0" index="0" speed="13.89" length="11.20" shape="1.60,592.80 1.60,604.00"/>
    </edge>
    <edge id=":n0_7_0" function="internal">
        <lane id=":n0_7_0_0" index="0" speed="6.51" length="9.03" shape="1.60,692.80 1.95,695.25 3.00,697.00 4.75,698.05 7.20,698.40"/>
    </edge>
    <edge id=":n0_7_1" function="internal">
        <lane id=":n0_7_1_0" index="0" speed="13.89" length="11.20" shape="1.60,692.80 1.60,704.00"/>
    </edge>
    <edge id=":n0_8_0" function="internal">
        <lane id=":n0_8_0_0" index="0" speed="6.51" length="9.03" shape="1.60,792.80 1.95,795.25 3.00,797.00 4.75,798.05 7.20,798.40"/>
    </edge>
    <edge id=":n0_8_1" function="internal">
        <lane id=":n0_8_1_0" index="0" speed="13.89" length="11.20" shape="1.60,792.80 1.60,804.00"/>
    </edge>
    <edge id=":n0_9_0" function="internal">
        <lane id=":n0_9_0_0" index="0" speed="6.51" length="9.03" shape="1.60,892.80 1.95,895.25 3.00,897.00 4.75,898.05 7.20,898.40"/>
    </edge>
    <edge id=":n0_9_1" function="internal">
        <lane id=":n0_9_1_0" index="0" speed="13.89" length="11.20" shape="1.60,892.80 1.60,904.00"/>
    </edge>
    <edge id=":n10_0_0" function="internal">
        <lane id=":n10_0_0_0" index="0" speed="3.90" length="2.58" shape="1000.00,-1.60 1000.70,-1.50 1001.20,-1.20 1001.50,-0.70 1001.60,0.00"/>
    </edge>
    <edge id=":n10_1_0" function="internal">
        <lane id=":n10_1_0_0" index="0" speed="13.89" length="11.20" shape="1001.60,92.80 1001.60,104.00"/>
    </edge>
    <edge id=":n10_1_1" function="internal">
        <lane id=":n10_1_1_0" index="0" speed="6.51" length="4.11" shape="996.00,98.40 998.45,98.75 999.85,99.59"/>
    </edge>
    <edge id=":n10_1_2" function="internal">
        <lane id=":n10_1_2_0" index="0" speed="6.51" length="4.93" shape="999.85,99.59 1000.20,99.80 1001.25,101.55 1001.60,104.00"/>
    </edge>
    <edge id=":n10_2_0" function="internal">
        <lane id=":n10_2_0_0" index="0" speed="13.89" length="11.20" shape="1001.60,192.80 1001.60,204.00"/>
    </edge>
    <edge id=":n10_2_1" function="internal">
        <lane id=":n10_2_1_0" index="0" speed="6.51" length="4.11" shape="996.00,198.40 998.45,198.75 999.85,199.59"/>
    </edge>
    <edge id=":n10_2_2" function="internal">
        <lane id=":n10_2_2_0" index="0" speed="6.51" length="4.93" shape="999.85,199.59 1000.20,199.80 1001.25,201.55 1001.60,204.00"/>
    </edge>
    <edge id=":n10_3_0" function="internal">
        <lane id=":n10_3_0_0" index="0" speed="13.89" length="11.20" shape="1001.60,292.80 1001.60,304.00"/>
    </edge>
    <edge id=":n10_3_1" function="internal">
        <lane id=":n10_3_1_0" index="0" speed="6.51" length="4.11" shape="996.00,298.40 998.45,298.75 999.85,299.59"/>
    </edge>
    <edge id=":n10_3_2" function="internal">
        <lane id=":n10_3_2_0" index="0" speed="6.51" length="4.93" shape="999.85,299.59 1000.20,299.80 1001.25,301.55 1001.60,304.00"/>
    </edge>
    <edge id=":n10_4_0" function="internal">
        <lane id=":n10_4_0_0" index="0" speed="13.89" length="11.20" shape="1001.60,392.80 1001.60,404.00"/>
    </edge>
    <edge id=":n10_4_1" function="internal">
        <lane id=":n10_4_1_0" index="0" speed="6.51" length="4.11" shape="996.00,398.40 998.45,398.75 999.85,399.59"/>
    </edge>
    <edge id=":n10_4_2" function="internal">
        <lane id=":n10_4_2_0" index="0" speed="6.51" length="4.93" shape="999.85,399.59 1000.20,399.80 1001.25,401.55 1001.60,404.00"/>
    </edge>
    <edge id=":n10_5_0" function="internal">
        <lane id=":n10_5_0_0" index="0" speed="13.89" length="11.20" shape="1001.60,492.80 1001.60,504.00"/>
    </edge>
    <edge id=":n10_5_1" function="internal">
        <lane id=":n10_5_1_0" index="0" speed="6.51" length="4.11" shape="996.00,498.40 998.45,498.75 999.85,499.59"/>
    </edge>
    <edge id=":n10_5_2" function="internal">
        <lane id=":n10_5_2_0" index="0" speed="6.51" length="4.93" shape="999.85,499.59 1000.20,499.80 1001.25,501.55 1001.60,504.00"/>
    </edge>
    <edge id=":n10_6_0" function="internal">
        <lane id=":n10_6_0_0" index="0" speed="13.89" length="11.20" shape="1001.60,592.80 1001.60,604.00"/>
    </edge>
    <edge id=":n10_6_1" function="internal">
        <lane id=":n10_6_1_0" index="0" speed="6.51" length="4.11" shape="996.00,598.40 998.45,598.75 999.85,599.59"/>
    </edge>
    <edge id=":n10_6_2" function="internal">
        <lane id=":n10_6_2_0" index="0" speed="6.51" length="4.93" shape="999.85,599.59 1000.20,599.80 1001.25,601.55 1001.60,604.00"/>
    </edge>
    <edge id=":n10_7_0" function="internal">
        <lane id=":n10_7_0_0" index="0" speed="13.89" length="11.20" shape="1001.60,692.80 1001.60,704.00"/>
    </edge>
    <edge id=":n10_7_1" function="internal">
        <lane id=":n10_7_1_0" index="0" speed="6.51" length="4.11" shape="996.00,698.40 998.45,698.75 999.85,699.59"/>
    </edge>
    <edge id=":n10_7_2" function="internal">
        <lane id=":n10_7_2_0" index="0" speed="6.51" length="4.93" shape="999.85,699.59 1000.20,699.80 1001.25,701.55 1001.60,704.00"/>
    </edge>
    <edge id=":n10_8_0" function="internal">
        <lane id=":n10_8_0_0" index="0" speed="13.89" length="11.20" shape="1001.60,792.80 1001.60,804.00"/>
    </edge>
    <edge id=":n10_8_1" function="internal">
        <lane id=":n10_8_1_0" index="0" speed="6.51" length="4.11" shape="996.00,798.40 998.45,798.75 999.85,799.59"/>
    </edge>
    <edge id=":n10_8_2" function="internal">
        <lane id=":n10_8_2_0" index="0" speed="6.51" length="4.93" shape="999.85,799.59 1000.20,799.80 1001.25,801.55 1001.60,804.00"/>
    </edge>
    <edge id=":n10_9_0" function="internal">
        <lane id=":n10_9_0_0" index="0" speed="13.89" length="11.20" shape="1001.60,892.80 1001.60,904.00"/>
    </edge>
    <edge id=":n10_9_1" function="internal">
        <lane id=":n10_9_1_0" index="0" speed="6.51" length="4.11" shape="996.00,898.40 998.45,898.75 999.85,899.59"/>
    </edge>
    <edge id=":n10_9_2" function="internal">
        <lane id=":n10_9_2_0" index="0" speed="6.51" length="4.93" shape="999.85,899.59 1000.20,899.80 1001.25,901.55 1001.60,904.00"/>
    </edge>
    <edge id=":n1_0_0" function="internal">
        <lane id=":n1_0_0_0" index="0" speed="13.89" length="11.20" shape="96.00,-1.60 107.20,-1.60"/>
    </edge>
    <edge id=":n1_0_1" function="internal">
        <lane id=":n1_0_1_0" index="0" speed="6.51" length="9.03" shape="96.00,-1.60 98.45,-1.25 100.20,-0.20 101.25,1.55 101.60,4.00"/>
    </edge>
    <edge id=":n1_1_0" function="internal">
        <lane id=":n1_1_0_0" index="0" speed="6.51" length="9.03" shape="101.60,92.80 101.95,95.25 103.00,97.00 104.75,98.05 107.20,98.40"/>
    </edge>
    <edge id=":n1_1_1" function="internal">
        <lane id=":n1_1_1_0" index="0" speed="13.89" length="11.20" shape="101.60,92.80 101.60,104.00"/>
    </edge>
    <edge id=":n1_1_2" function="internal">
        <lane id=":n1_1_2_0" index="0" speed="13.89" length="11.20" shape="96.00,98.40 107.20,98.40"/>
    </edge>
    <edge id=":n1_1_3" function="internal">
        <lane id=":n1_1_3_0" index="0" speed="6.51" length="4.11" shape="96.00,98.40 98.45,98.75 99.85,99.59"/>
    </edge>
    <edge id=":n1_1_4" function="internal">
        <lane id=":n1_1_4_0" index="0" speed="6.51" length="4.93" shape="99.85,99.59 100.20,99.80 101.25,101.55 101.60,104.00"/>
    </edge>
    <edge id=":n1_10_0" function="internal">
        <lane id=":n1_10_0_0" index="0" speed="6.51" length="9.03" shape="101.60,992.80 101.95,995.25 103.00,997.00 104.75,998.05 107.20,998.40"/>
    </edge>
    <edge id=":n1_10_1" function="internal">
        <lane id=":n1_10_1_0" index="0" speed="13.89" length="11.20" shape="96.00,998.40 107.20,998.40"/>
    </edge>
    <edge id=":n1_2_0" function="internal">
        <lane id=":n1_2_0_0" index="0" speed="6.51" length="9.03" shape="101.60,192.80 101.95,195.25 103.00,197.00 104.75,198.05 107.20,198.40"/>
    </edge>
    <edge id=":n1_2_1" function="internal">
        <lane id=":n1_2_1_0" index="0" speed="13.89" length="11.20" shape="101.60,192.80 101.60,204.00"/>
    </edge>
    <edge id=":n1_2_2" function="internal">
        <lane id=":n1_2_2_0" index="0" speed="13.89" length="11.20" shape="96.00,198.40 107.20,198.40"/>
    </edge>
    <edge id=":n1_2_3" function="internal">
        <lane id=":n1_2_3_0" index="0" speed="6.51" length="4.11" shape="96.00,198.40 98.45,198.75 99.85,199.59"/>
    </edge>
    <edge id=":n1_2_4" function="internal">
        <lane id=":n1_2_4_0" index="0" speed="6.51" length="4.93" shape="99.85,199.59 100.20,199.80 101.25,201.55 101.60,204.00"/>
    </edge>
    <edge id=":n1_3_0" function="internal">
        <lane id=":n1_3_0_0" index="0" speed="6.51" length="9.03" shape="101.60,292.80 101.95,295.25 103.00,297.00 104.75,298.05 107.20,298.40"/>
    </edge>
    <edge id=":n1_3_1" function="internal">
        <lane id=":n1_3_1_0" index="0" speed="13.89" length="11.20" shape="101.60,292.80 101.60,304.00"/>
    </edge>
    <edge id=":n1_3_2" function="internal">
        <lane id=":n1_3_2_0" index="0" speed="13.89" length="11.20" shape="96.00,298.40 107.20,298.40"/>
    </edge>
    <edge id=":n1_3_3" function="internal">
        <lane id=":n1_3_3_0" index="0" speed="6.51" length="4.11" shape="96.00,298.40 98.45,298.75 99.85,299.59"/>
    </edge>
    <edge id=":n1_3_4" function="internal">
        <lane id=":n1_3_4_0" index="0" speed="6.51" length="4.93" shape="99.85,299.59 100.20,299.80 101.25,301.55 101.60,304.00"/>
    </edge>
    <edge id=":n1_4_0" function="internal">
        <lane id=":n1_4_0_0" index="0" speed="6.51" length="9.03" shape="101.60,392.80 101.95,395.25 103.00,397.00 104.75,398.05 107.20,398.40"/>
    </edge>
    <edge id=":n1_4_1" function="internal">
        <lane id=":n1_4_1_0" index="0" speed="13.89" length="11.20" shape="101.60,392.80 101.60,404.00"/>
    </edge>
    <edge id=":n1_4_2" function="internal">
        <lane id=":n1_4_2_0" index="0" speed="13.89" length="11.20" shape="96.00,398.40 107.20,398.40"/>
    </edge>
    <edge id=":n1_4_3" function="internal">
        <lane id=":n1_4_3_0" index="0" speed="6.51" length="4.11" shape="96.00,398.40 98.45,398.75 99.85,399.59"/>
    </edge>
    <edge id=":n1_4_4" function="internal">
        <lane id=":n1_4_4_0" index="0" speed="6.51" length="4.93" shape="99.85,399.59 100.20,399.80 101.25,401.55 101.60,404.00"/>
    </edge>
    <edge id=":n1_5_0" function="internal">
        <lane id=":n1_5_0_0" index="0" speed="6.51" length="9.03" shape="101.60,492.80 101.95,495.25 103.00,497.00 104.75,498.05 107.20,498.40"/>
    </edge>
    <edge id=":n1_5_1" function="internal">
        <lane id=":n1_5_1_0" index="0" speed="13.89" length="11.20" shape="101.60,492.80 101.60,504.00"/>
    </edge>
    <edge id=":n1_5_2" function="internal">
        <lane id=":n1_5_2_0" index="0" speed="13.89" length="11.20" shape="96.00,498.40 107.20,498.40"/>
    </edge>
    <edge id=":n1_5_3" function="internal">
        <lane id=":n1_5_3_0" index="0" speed="6.51" length="4.11" shape="96.00,498.40 98.45,498.75 99.85,499.59"/>
    </edge>
    <edge id=":n1_5_4" function="internal">
        <lane id=":n1_5_4_0" index="0" speed="6.51" length="4.93" shape="99.85,499.59 100.20,499.80 101.25,501.55 101.60,504.00"/>
    </edge>
    <edge id=":n1_6_0" function="internal">
        <lane id=":n1_6_0_0" index="0" speed="6.51" length="9.03" shape="101.60,592.80 101.95,595.25 103.00,597.00 104.75,598.05 107.20,598.40"/>
    </edge>
    <edge id=":n1_6_1" function="internal">
        <lane id=":n1_6_1_0" index="0" speed="13.89" length="11.20" shape="101.60,592.80 101.60,604.00"/>
    </edge>
    <edge id=":n1_6_2" function="internal">
        <lane id=":n1_6_2_0" index="0" speed="13.89" length="11.20" shape="96.00,598.40 107.20,598.40"/>
    </edge>
    <edge id=":n1_6_3" function="internal">
        <lane id=":n1_6_3_0" index="0" speed="6.51" length="4.11" shape="96.00,598.40 98.45,598.75 99.85,599.59"/>
    </edge>
    <edge id=":n1_6_4" function="internal">
        <lane id=":n1_6_4_0" index="0" speed="6.51" length="4.93" shape="99.85,599.59 100.20,599.80 101.25,601.55 101.60,604.00"/>
    </edge>
    <edge id=":n1_7_0" function="internal">
        <lane id=":n1_7_0_0" index="0" speed="6.51" length="9.03" shape="101.60,692.80 101.95,695.25 103.00,697.00 104.75,698.05 107.20,698.40"/>
    </edge>
    <edge id=":n1_7_1" function="internal">
        <lane id=":n1_7_1_0" index="0" speed="13.89" length="11.20" shape="101.60,692.80 101.60,704.00"/>
    </edge>
    <edge id=":n1_7_2" function="internal">
        <lane id=":n1_7_2_0" index="0" speed="13.89" length="11.20" shape="96.00,698.40 107.20,698.40"/>
    </edge>
    <edge id=":n1_7_3" function="internal">
        <lane id=":n1_7_3_0" index="0" speed="6.51" length="4.11" shape="96.00,698.40 98.45,698.75 99.85,699.59"/>
    </edge>
    <edge id=":n1_7_4" function="internal">
        <lane id=":n1_7_4_0" index="0" speed="6.51" length="4.93" shape="99.85,699.59 100.20,699.80 101.25,701.55 101.60,704.00"/>
    </edge>
    <edge id=":n1_8_0" function="internal">
        <lane id=":n1_8_0_0" index="0" speed="6.51" length="9.03" shape="101.60,792.80 101.95,795.25 103.00,797.00 104.75,798.05 107.20,798.40"/>
    </edge>
    <edge id=":n1_8_1" function="internal">
        <lane id=":n1_8_1_0" index="0" speed="13.89" length="11.20" shape="101.60,792.80 101.60,804.00"/>
    </edge>
    <edge id=":n1_8_2" function="internal">
        <lane id=":n1_8_2_0" index="0" speed="13.89" length="11.20" shape="96.00,798.40 107.20,798.40"/>
    </edge>
    <edge id=":n1_8_3" function="internal">
        <lane id=":n1_8_3_0" index="0" speed="6.51" length="4.11" shape="96.00,798.40 98.45,798.75 99.85,799.59"/>
    </edge>
    <edge id=":n1_8_4" function="internal">
        <lane id=":n1_8_4_0" index="0" speed="6.51" length="4.93" shape="99.85,799.59 100.20,799.80 101.25,801.55 101.60,804.00"/>
    </edge>
    <edge id=":n1_9_0" function="internal">
        <lane id=":n1_9_0_0" index="0" speed="6.51" length="9.03" shape="101.60,892.80 101.95,895.25 103.00,897.00 104.75,898.05 107.20,898.40"/>
    </edge>
    <edge id=":n1_9_1" function="internal">
        <lane id=":n1_9_1_0" index="0" speed="13.89" length="11.20" shape="101.60,892.80 101.60,904.00"/>
    </edge>
    <edge id=":n1_9_2" function="internal">
        <lane id=":n1_9_2_0" index="0" speed="13.89" length="11.20" shape="96.00,898.40 107.20,898.40"/>
    </edge>
    <edge id=":n1_9_3" function="internal">
        <lane id=":n1_9_3_0" index="0" speed="6.51" length="4.11" shape="96.00,898.40 98.45,898.75 99.85,899.59"/>
    </edge>
    <edge id=":n1_9_4" function="internal">
        <lane id=":n1_9_4_0" index="0" speed="6.51" length="4.93" shape="99.85,899.59 100.20,899.80 101.25,901.55 101.60,904.00"/>
    </edge>
    <edge id=":n2_0_0" function="internal">
        <lane id=":n2_0_0_0" index="0" speed="13.89" length="11.20" shape="196.00,-1.60 207.20,-1.60"/>
    </edge>
    <edge id=":n2_0_1" function="internal">
        <lane id=":n2_0_1_0" index="0" speed="6.51" length="9.03" shape="196.00,-1.60 198.45,-1.25 200.20,-0.20 201.25,1.55 201.60,4.00"/>
    </edge>
    <edge id=":n2_1_0" function="internal">
        <lane id=":n2_1_0_0" index="0" speed="6.51" length="9.03" shape="201.60,92.80 201.95,95.25 203.00,97.00 204.75,98.05 207.20,98.40"/>
    </edge>
    <edge id=":n2_1_1" function="internal">
        <lane id=":n2_1_1_0" index="0" speed="13.89" length="11.20" shape="201.60,92.80 201.60,104.00"/>
    </edge>
    <edge id=":n2_1_2" function="internal">
        <lane id=":n2_1_2_0" index="0" speed="13.89" length="11.20" shape="196.00,98.40 207.20,98.40"/>
    </edge>
    <edge id=":n2_1_3" function="internal">
        <lane id=":n2_1_3_0" index="0" speed="6.51" length="4.11" shape="196.00,98.40 198.45,98.75 199.85,99.59"/>
    </edge>
    <edge id=":n2_1_4" function="internal">
        <lane id=":n2_1_4_0" index="0" speed="6.51" length="4.93" shape="199.85,99.59 200.20,99.80 201.25,101.55 201.60,104.00"/>
    </edge>
    <edge id=":n2_10_0" function="internal">
        <lane id=":n2_10_0_0" index="0" speed="6.51" length="9.03" shape="201.60,992.80 201.95,995.25 203.00,997.00 204.75,998.05 207.20,998.40"/>
    </edge>
    <edge id=":n2_10_1" function="internal">
        <lane id=":n2_10_1_0" index="0" speed="13.89" length="11.20" shape="196.00,998.40 207.20,998.40"/>
    </edge>
    <edge id=":n2_2_0" function="internal">
        <lane id=":n2_2_0_0" index="0" speed="6.51" length="9.03" shape="201.60,192.80 201.95,195.25 203.00,197.00 204.75,198.05 207.20,198.40"/>
    </edge>
    <edge id=":n2_2_1" function="internal">
        <lane id=":n2_2_1_0" index="0" speed="13.89" length="11.20" shape="201.60,192.80 201.60,204.00"/>
    </edge>
    <edge id=":n2_2_2" function="internal">
        <lane id=":n2_2_2_0" index="0" speed="13.89" length="11.20" shape="196.00,198.40 207.20,198.40"/>
    </edge>
    <edge id=":n2_2_3" function="internal">
        <lane id=":n2_2_3_0" index="0" speed="6.51" length="4.11" shape="196.00,198.40 198.45,198.75 199.85,199.59"/>
    </edge>
    <edge id=":n2_2_4" function="internal">
        <lane id=":n2_2_4_0" index="0" speed="6.51" length="4.93" shape="199.85,199.59 200.20,199.80 201.25,201.55 201.60,204.00"/>
    </edge>
    <edge id=":n2_3_0" function="internal">
        <lane id=":n2_3_0_0" index="0" speed="6.51" length="9.03" shape="201.60,292.80 201.95,295.25 203.00,297.00 204.75,298.05 207.20,298.40"/>
    </edge>
    <edge id=":n2_3_1" function="internal">
        <lane id=":n2_3_1_0" index="0" speed="13.89" length="11.20" shape="201.60,292.80 201.60,304.00"/>
    </edge>
    <edge id=":n2_3_2" function="internal">
        <lane id=":n2_3_2_0" index="0" speed="13.89" length="11.20" shape="196.00,298.40 207.20,298.40"/>
    </edge>
    <edge id=":n2_3_3" function="internal">
        <lane id=":n2_3_3_0" index="0" speed="6.51" length="4.11" shape="196.00,298.40 198.45,298.75 199.85,299.59"/>
    </edge>
    <edge id=":n2_3_4" function="internal">
        <lane id=":n2_3_4_0" index="0" speed="6.51" length="4.93" shape="199.85,299.59 200.20,299.80 201.25,301.55 201.60,304.00"/>
    </edge>
    <edge id=":n2_4_0" function="internal">
        <lane id=":n2_4_0_0" index="0" speed="6.51" length="9.03" shape="201.60,392.80 201.95,395.25 203.00,397.00 204.75,398.05 207.20,398.40"/>
    </edge>
    <edge id=":n2_4_1" function="internal">
        <lane id=":n2_4_1_0" index="0" speed="13.89" length="11.20" shape="201.60,392.80 201.60,404.00"/>
    </edge>
    <edge id=":n2_4_2" function="internal">
        <lane id=":n2_4_2_0" index="0" speed="13.89" length="11.20" shape="196.00,398.40 207.20,398.40"/>
    </edge>
    <edge id=":n2_4_3" function="internal">
        <lane id=":n2_4_3_0" index="0" speed="6.51" length="4.11" shape="196.00,398.40 198.45,398.75 199.85,399.59"/>
    </edge>
    <edge id=":n2_4_4" function="internal">
        <lane id=":n2_4_4_0" index="0" speed="6.51" length="4.93" shape="199.85,399.59 200.20,399.80 201.25,401.55 201.60,404.00"/>
    </edge>
    <edge id=":n2_5_0" function="internal">
        <lane id=":n2_5_0_0" index="0" speed="6.51" length="9.03" shape="201.60,492.80 201.95,495.25 203.00,497.00 204.75,498.05 207.20,498.40"/>
    </edge>
    <edge id=":n2_5_1" function="internal">
        <lane id=":n2_5_1_0" index="0" speed="13.89" length="11.20" shape="201.60,492.80 201.60,504.00"/>
    </edge>
    <edge id=":n2_5_2" function="internal">
        <lane id=":n2_5_2_0" index="0" speed="13.89" length="11.20" shape="196.00,498.40 207.20,498.40"/>
    </edge>
    <edge id=":n2_5_3" function="internal">
        <lane id=":n2_5_3_0" index="0" speed="6.51" length="4.11" shape="196.00,498.40 198.45,498.75 199.85,499.59"/>
    </edge>
    <edge id=":n2_5_4" function="internal">
        <lane id=":n2_5_4_0" index="0" speed="6.51" length="4.93" shape="199.85,499.59 200.20,499.80 201.25,501.55 201.60,504.00"/>
    </edge>
    <edge id=":n2_6_0" function="internal">
        <lane id=":n2_6_0_0" index="0" speed="6.51" length="9.03" shape="201.60,592.80 201.95,595.25 203.00,597.00 204.75,598.05 207.20,598.40"/>
    </edge>
    <edge id=":n2_6_1" function="internal">
        <lane id=":n2_6_1_0" index="0" speed="13.89" length="11.20" shape="201.60,592.80 201.60,604.00"/>
    </edge>
    <edge id=":n2_6_2" function="internal">
        <lane id=":n2_6_2_0" index="0" speed="13.89" length="11.20" shape="196.00,598.40 207.20,598.40"/>
    </edge>
    <edge id=":n2_6_3" function="internal">
        <lane id=":n2_6_3_0" index="0" speed="6.51" length="4.11" shape="196.00,598.40 198.45,598.75 199.85,599.59"/>
    </edge>
    <edge id=":n2_6_4" function="internal">
        <lane id=":n2_6_4_0" index="0" speed="6.51" length="4.93" shape="199.85,599.59 200.20,599.80 201.25,601.55 201.60,604.00"/>
    </edge>
    <edge id=":n2_7_0" function="internal">
        <lane id=":n2_7_0_0" index="0" speed="6.51" length="9.03" shape="201.60,692.80 201.95,695.25 203.00,697.00 204.75,698.05 207.20,698.40"/>
    </edge>
    <edge id=":n2_7_1" function="internal">
        <lane id=":n2_7_1_0" index="0" speed="13.89" length="11.20" shape="201.60,692.80 201.60,704.00"/>
    </edge>
    <edge id=":n2_7_2" function="internal">
        <lane id=":n2_7_2_0" index="0" speed="13.89" length="11.20" shape="196.00,698.40 207.20,698.40"/>
    </edge>
    <edge id=":n2_7_3" function="internal">
        <lane id=":n2_7_3_0" index="0" speed="6.51" length="4.11" shape="196.00,698.40 198.45,698.75 199.85,699.59"/>
    </edge>
    <edge id=":n2_7_4" function="internal">
        <lane id=":n2_7_4_0" index="0" speed="6.51" length="4.93" shape="199.85,699.59 200.20,699.80 201.25,701.55 201.60,704.00"/>
    </edge>
    <edge id=":n2_8_0" function="internal">
        <lane id=":n2_8_0_0" index="0" speed="6.51" length="9.03" shape="201.60,792.80 201.95,795.25 203.00,797.00 204.75,798.05 207.20,798.40"/>
    </edge>
    <edge id=":n2_8_1" function="internal">
        <lane id=":n2_8_1_0" index="0" speed="13.89" length="11.20" shape="201.60,792.80 201.60,804.00"/>
    </edge>
    <edge id=":n2_8_2" function="internal">
        <lane id=":n2_8_2_0" index="0" speed="13.89" length="11.20" shape="196.00,798.40 207.20,798.40"/>
    </edge>
    <edge id=":n2_8_3" function="internal">
        <lane id=":n2_8_3_0" index="0" speed="6.51" length="4.11" shape="196.00,798.40 198.45,798.75 199.85,799.59"/>
    </edge>
    <edge id=":n2_8_4" function="internal">
        <lane id=":n2_8_4_0" index="0" speed="6.51" length="4.93" shape="199.85,799.59 200.20,799.80 201.25,801.55 201.60,804.00"/>
    </edge>
    <edge id=":n2_9_0" function="internal">
        <lane id=":n2_9_0_0" index="0" speed="6.51" length="9.03" shape="201.60,892.80 201.95,895.25 203.00,897.00 204.75,898.05 207.20,898.40"/>
    </edge>
    <edge id=":n2_9_1" function="internal">
        <lane id=":n2_9_1_0" index="0" speed="13.89" length="11.20" shape="201.60,892.80 201.60,904.00"/>
    </edge>
    <edge id=":n2_9_2" function="internal">
        <lane id=":n2_9_2_0" index="0" speed="13.89" length="11.20" shape="196.00,898.40 207.20,898.40"/>
    </edge>
    <edge id=":n2_9_3" function="internal">
        <lane id=":n2_9_3_0" index="0" speed="6.51" length="4.11" shape="196.00,898.40 198.45,898.75 199.85,899.59"/>
    </edge>
    <edge id=":n2_9_4" function="internal">
        <lane id=":n2_9_4_0" index="0" speed="6.51" length="4.93" shape="199.85,899.59 200.20,899.80 201.25,901.55 201.60,904.00"/>
    </edge>
    <edge id=":n3_0_0" function="internal">
        <lane id=":n3_0_0_0" index="0" speed="13.89" length="11.20" shape="296.00,-1.60 307.20,-1.60"/>
    </edge>
    <edge id=":n3_0_1" function="internal">
        <lane id=":n3_0_1_0" index="0" speed="6.51" length="9.03" shape="296.00,-1.60 298.45,-1.25 300.20,-0.20 301.25,1.55 301.60,4.00"/>
    </edge>
    <edge id=":n3_1_0" function="internal">
        <lane id=":n3_1_0_0" index="0" speed="6.51" length="9.03" shape="301.60,92.80 301.95,95.25 303.00,97.00 304.75,98.05 307.20,98.40"/>
    </edge>
    <edge id=":n3_1_1" function="internal">
        <lane id=":n3_1_1_0" index="0" speed="13.89" length="11.20" shape="301.60,92.80 301.60,104.00"/>
    </edge>
    <edge id=":n3_1_2" function="internal">
        <lane id=":n3_1_2_0" index="0" speed="13.89" length="11.20" shape="296.00,98.40 307.20,98.40"/>
    </edge>
    <edge id=":n3_1_3" function="internal">
        <lane id=":n3_1_3_0" index="0" speed="6.51" length="4.11" shape="296.00,98.40 298.45,98.75 299.85,99.59"/>
    </edge>
    <edge id=":n3_1_4" function="internal">
        <lane id=":n3_1_4_0" index="0" speed="6.51" length="4.93" shape="299.85,99.59 300.20,99.80 301.25,101.55 301.60,104.00"/>
    </edge>
    <edge id=":n3_10_0" function="internal">
        <lane id=":n3_10_0_0" index="0" speed="6.51" length="9.03" shape="301.60,992.80 301.95,995.25 303.00,997.00 304.75,998.05 307.20,998.40"/>
    </edge>
    <edge id=":n3_10_1" function="internal">
        <lane id=":n3_10_1_0" index="0" speed="13.89" length="11.20" shape="296.00,998.40 307.20,998.40"/>
    </edge>
    <edge id=":n3_2_0" function="internal">
        <lane id=":n3_2_0_0" index="0" speed="6.51" length="9.03" shape="301.60,192.80 301.95,195.25 303.00,197.00 304.75,198.05 307.20,198.40"/>
    </edge>
    <edge id=":n3_2_1" function="internal">
        <lane id=":n3_2_1_0" index="0" speed="13.89" length="11.20" shape="301.60,192.80 301.60,204.00"/>
    </edge>
    <edge id=":n3_2_2" function="internal">
        <lane id=":n3_2_2_0" index="0" speed="13.89" length="11.20" shape="296.00,198.40 307.20,198.40"/>
    </edge>
    <edge id=":n3_2_3" function="internal">
        <lane id=":n3_2_3_0" index="0" speed="6.51" length="4.11" shape="296.00,198.40 298.45,198.75 299.85,199.59"/>
    </edge>
    <edge id=":n3_2_4" function="internal">
        <lane id=":n3_2_4_0" index="0" speed="6.51" length="4.93" shape="299.85,199.59 300.20,199.80 301.25,201.55 301.60,204.00"/>
    </edge>
    <edge id=":n3_3_0" function="internal">
        <lane id=":n3_3_0_0" index="0" speed="6.51" length="9.03" shape="301.60,292.80 301.95,295.25 303.00,297.00 304.75,298.05 307.20,298.40"/>
    </edge>
    <edge id=":n3_3_1" function="internal">
        <lane id=":n3_3_1_0" index="0" speed="13.89" length="11.20" shape="301.60,292.80 301.60,304.00"/>
    </edge>
    <edge id=":n3_3_2" function="internal">
        <lane id=":n3_3_2_0" index="0" speed="13.89" length="11.20" shape="296.00,298.40 307.20,298.40"/>
    </edge>
    <edge id=":n3_3_3" function="internal">
        <lane id=":n3_3_3_0" index="0" speed="6.51" length="4.11" shape="296.00,298.40 298.45,298.75 299.85,299.59"/>
    </edge>