<nodes>
    <node id="n0_0" x="0" y="0" type="priority"/>
    <node id="n1_0" x="100" y="0" type="priority"/>
    <node id="n2_0" x="200" y="0" type="priority"/>
    <node id="n3_0" x="300" y="0" type="priority"/>
    <node id="n4_0" x="400" y="0" type="priority"/>
    <node id="n5_0" x="500" y="0" type="priority"/>
    <node id="n6_0" x="600" y="0" type="priority"/>
    <node id="n7_0" x="700" y="0" type="priority"/>
    <node id="n8_0" x="800" y="0" type="priority"/>
    <node id="n9_0" x="900" y="0" type="priority"/>
    <node id="n10_0" x="1000" y="0" type="priority"/>
    <node id="n0_1" x="0" y="100" type="priority"/>
    <node id="n1_1" x="100" y="100" type="priority"/>
    <node id="n2_1" x="200" y="100" type="priority"/>
    <node id="n3_1" x="300" y="100" type="priority"/>
    <node id="n4_1" x="400" y="100" type="priority"/>
    <node id="n5_1" x="500" y="100" type="priority"/>
    <node id="n6_1" x="600" y="100" type="priority"/>
    <node id="n7_1" x="700" y="100" type="priority"/>
    <node id="n8_1" x="800" y="100" type="priority"/>
    <node id="n9_1" x="900" y="100" type="priority"/>
    <node id="n10_1" x="1000" y="100" type="priority"/>
    <node id="n0_2" x="0" y="200" type="priority"/>
    <node id="n1_2" x="100" y="200" type="priority"/>
    <node id="n2_2" x="200" y="200" type="priority"/>
    <node id="n3_2" x="300" y="200" type="priority"/>
    <node id="n4_2" x="400" y="200" type="priority"/>
    <node id="n5_2" x="500" y="200" type="priority"/>
    <node id="n6_2" x="600" y="200" type="priority"/>
    <node id="n7_2" x="700" y="200" type="priority"/>
    <node id="n8_2" x="800" y="200" type="priority"/>
    <node id="n9_2" x="900" y="200" type="priority"/>
    <node id="n10_2" x="1000" y="200" type="priority"/>
    <node id="n0_3" x="0" y="300" type="priority"/>
    <node id="n1_3" x="100" y="300" type="priority"/>
    <node id="n2_3" x="200" y="300" type="priority"/>
    <node id="n3_3" x="300" y="300" type="priority"/>
    <node id="n4_3" x="400" y="300" type="priority"/>
    <node id="n5_3" x="500" y="300" type="priority"/>
    <node id="n6_3" x="600" y="300" type="priority"/>
    <node id="n7_3" x="700" y="300" type="priority"/>
    <node id="n8_3" x="800" y="300" type="priority"/>
    <node id="n9_3" x="900" y="300" type="priority"/>
    <node id="n10_3" x="1000" y="300" type="priority"/>
    <node id="n0_4" x="0" y="400" type="priority"/>
    <node id="n1_4" x="100" y="400" type="priority"/>
    <node id="n2_4" x="200" y="400" type="priority"/>
    <node id="n3_4" x="300" y="400" type="priority"/>
    <node id="n4_4" x="400" y="400" type="priority"/>
    <node id="n5_4" x="500" y="400" type="priority"/>
    <node id="n6_4" x="600" y="400" type="priority"/>
    <node id="n7_4" x="700" y="400" type="priority"/>
    <node id="n8_4" x="800" y="400" type="priority"/>
    <node id="n9_4" x="900" y="400" type="priority"/>
    <node id="n10_4" x="1000" y="400" type="priority"/>
    <node id="n0_5" x="0" y="500" type="priority"/>
    <node id="n1_5" x="100" y="500" type="priority"/>
    <node id="n2_5" x="200" y="500" type="priority"/>
    <node id="n3_5" x="300" y="500" type="priority"/>
    <node id="n4_5" x="400" y="500" type="priority"/>
    <node id="n5_5" x="500" y="500" type="priority"/>
    <node id="n6_5" x="600" y="500" type="priority"/>
    <node id="n7_5" x="700" y="500" type="priority"/>
    <node id="n8_5" x="800" y="500" type="priority"/>
    <node id="n9_5" x="900" y="500" type="priority"/>
    <node id="n10_5" x="1000" y="500" type="priority"/>
    <node id="n0_6" x="0" y="600" type="priority"/>
    <node id="n1_6" x="100" y="600" type="priority"/>
    <node id="n2_6" x="200" y="600" type="priority"/>
    <node id="n3_6" x="300" y="600" type="priority"/>
    <node id="n4_6" x="400" y="600" type="priority"/>
    <node id="n5_6" x="500" y="600" type="priority"/>
    <node id="n6_6" x="600" y="600" type="priority"/>
    <node id="n7_6" x="700" y="600" type="priority"/>
    <node id="n8_6" x="800" y="600" type="priority"/>
    <node id="n9_6" x="900" y="600" type="priority"/>
    <node id="n10_6" x="1000" y="600" type="priority"/>
    <node id="n0_7" x="0" y="700" type="priority"/>
    <node id="n1_7" x="100" y="700" type="priority"/>
    <node id="n2_7" x="200" y="700" type="priority"/>
    <node id="n3_7" x="300" y="700" type="priority"/>
    <node id="n4_7" x="400" y="700" type="priority"/>
    <node id="n5_7" x="500" y="700" type="priority"/>
    <node id="n6_7" x="600" y="700" type="priority"/>
    <node id="n7_7" x="700" y="700" type="priority"/>
    <node id="n8_7" x="800" y="700" type="priority"/>
    <node id="n9_7" x="900" y="700" type="priority"/>
    <node id="n10_7" x="1000" y="700" type="priority"/>
    <node id="n0_8" x="0" y="800" type="priority"/>
    <node id="n1_8" x="100" y="800" type="priority"/>
    <node id="n2_8" x="200" y="800" type="priority"/>
    <node id="n3_8" x="300" y="800" type="priority"/>
    <node id="n4_8" x="400" y="800" type="priority"/>
    <node id="n5_8" x="500" y="800" type="priority"/>
    <node id="n6_8" x="600" y="800" type="priority"/>
    <node id="n7_8" x="700" y="800" type="priority"/>
    <node id="n8_8" x="800" y="800" type="priority"/>
    <node id="n9_8" x="900" y="800" type="priority"/>
    <node id="n10_8" x="1000" y="800" type="priority"/>
    <node id="n0_9" x="0" y="900" type="priority"/>
    <node id="n1_9" x="100" y="900" type="priority"/>
    <node id="n2_9" x="200" y="900" type="priority"/>
    <node id="n3_9" x="300" y="900" type="priority"/>
    <node id="n4_9" x="400" y="900" type="priority"/>
    <node id="n5_9" x="500" y="900" type="priority"/>
    <node id="n6_9" x="600" y="900" type="priority"/>
    <node id="n7_9" x="700" y="900" type="priority"/>
    <node id="n8_9" x="800" y="900" type="priority"/>
    <node id="n9_9" x="900" y="900" type="priority"/>
    <node id="n10_9" x="1000" y="900" type="priority"/>
    <node id="n0_10" x="0" y="1000" type="priority"/>
    <node id="n1_10" x="100" y="1000" type="priority"/>
    <node id="n2_10" x="200" y="1000" type="priority"/>
    <node id="n3_10" x="300" y="1000" type="priority"/>
    <node id="n4_10" x="400" y="1000" type="priority"/>
    <node id="n5_10" x="500" y="1000" type="priority"/>
    <node id="n6_10" x="600" y="1000" type="priority"/>
    <node id="n7_10" x="700" y="1000" type="priority"/>
    <node id="n8_10" x="800" y="1000" type="priority"/>
    <node id="n9_10" x="900" y="1000" type="priority"/>
    <node id="n10_10" x="1000" y="1000" type="priority"/>
</nodes>
