<edges>
    <edge id="h0_0" from="n0_0" to="n1_0" numLanes="1" speed="13.89"/>
    <edge id="h1_0" from="n1_0" to="n2_0" numLanes="1" speed="13.89"/>
    <edge id="h2_0" from="n2_0" to="n3_0" numLanes="1" speed="13.89"/>
    <edge id="h3_0" from="n3_0" to="n4_0" numLanes="1" speed="13.89"/>
    <edge id="h4_0" from="n4_0" to="n5_0" numLanes="1" speed="13.89"/>
    <edge id="h5_0" from="n5_0" to="n6_0" numLanes="1" speed="13.89"/>
    <edge id="h6_0" from="n6_0" to="n7_0" numLanes="1" speed="13.89"/>
    <edge id="h7_0" from="n7_0" to="n8_0" numLanes="1" speed="13.89"/>
    <edge id="h8_0" from="n8_0" to="n9_0" numLanes="1" speed="13.89"/>
    <edge id="h9_0" from="n9_0" to="n10_0" numLanes="1" speed="13.89"/>
    <edge id="h0_1" from="n0_1" to="n1_1" numLanes="1" speed="13.89"/>
    <edge id="h1_1" from="n1_1" to="n2_1" numLanes="1" speed="13.89"/>
    <edge id="h2_1" from="n2_1" to="n3_1" numLanes="1" speed="13.89"/>
    <edge id="h3_1" from="n3_1" to="n4_1" numLanes="1" speed="13.89"/>
    <edge id="h4_1" from="n4_1" to="n5_1" numLanes="1" speed="13.89"/>
    <edge id="h5_1" from="n5_1" to="n6_1" numLanes="1" speed="13.89"/>
    <edge id="h6_1" from="n6_1" to="n7_1" numLanes="1" speed="13.89"/>
    <edge id="h7_1" from="n7_1" to="n8_1" numLanes="1" speed="13.89"/>
    <edge id="h8_1" from="n8_1" to="n9_1" numLanes="1" speed="13.89"/>
    <edge id="h9_1" from="n9_1" to="n10_1" numLanes="1" speed="13.89"/>
    <edge id="h0_2" from="n0_2" to="n1_2" numLanes="1" speed="13.89"/>
    <edge id="h1_2" from="n1_2" to="n2_2" numLanes="1" speed="13.89"/>
    <edge id="h2_2" from="n2_2" to="n3_2" numLanes="1" speed="13.89"/>
    <edge id="h3_2" from="n3_2" to="n4_2" numLanes="1" speed="13.89"/>
    <edge id="h4_2" from="n4_2" to="n5_2" numLanes="1" speed="13.89"/>
    <edge id="h5_2" from="n5_2" to="n6_2" numLanes="1" speed="13.89"/>
    <edge id="h6_2" from="n6_2" to="n7_2" numLanes="1" speed="13.89"/>
    <edge id="h7_2" from="n7_2" to="n8_2" numLanes="1" speed="13.89"/>
    <edge id="h8_2" from="n8_2" to="n9_2" numLanes="1" speed="13.89"/>
    <edge id="h9_2" from="n9_2" to="n10_2" numLanes="1" speed="13.89"/>
    <edge id="h0_3" from="n0_3" to="n1_3" numLanes="1" speed="13.89"/>
    <edge id="h1_3" from="n1_3" to="n2_3" numLanes="1" speed="13.89"/>
    <edge id="h2_3" from="n2_3" to="n3_3" numLanes="1" speed="13.89"/>
    <edge id="h3_3" from="n3_3" to="n4_3" numLanes="1" speed="13.89"/>
    <edge id="h4_3" from="n4_3" to="n5_3" numLanes="1" speed="13.89"/>
    <edge id="h5_3" from="n5_3" to="n6_3" numLanes="1" speed="13.89"/>
    <edge id="h6_3" from="n6_3" to="n7_3" numLanes="1" speed="13.89"/>
    <edge id="h7_3" from="n7_3" to="n8_3" numLanes="1" speed="13.89"/>
    <edge id="h8_3" from="n8_3" to="n9_3" numLanes="1" speed="13.89"/>
    <edge id="h9_3" from="n9_3" to="n10_3" numLanes="1" speed="13.89"/>
    <edge id="h0_4" from="n0_4" to="n1_4" numLanes="1" speed="13.89"/>
    <edge id="h1_4" from="n1_4" to="n2_4" numLanes="1" speed="13.89"/>
    <edge id="h2_4" from="n2_4" to="n3_4" numLanes="1" speed="13.89"/>
    <edge id="h3_4" from="n3_4" to="n4_4" numLanes="1" speed="13.89"/>
    <edge id="h4_4" from="n4_4" to="n5_4" numLanes="1" speed="13.89"/>
    <edge id="h5_4" from="n5_4" to="n6_4" numLanes="1" speed="13.89"/>
    <edge id="h6_4" from="n6_4" to="n7_4" numLanes="1" speed="13.89"/>
    <edge id="h7_4" from="n7_4" to="n8_4" numLanes="1" speed="13.89"/>
    <edge id="h8_4" from="n8_4" to="n9_4" numLanes="1" speed="13.89"/>
    <edge id="h9_4" from="n9_4" to="n10_4" numLanes="1" speed="13.89"/>
    <edge id="h0_5" from="n0_5" to="n1_5" numLanes="1" speed="13.89"/>
    <edge id="h1_5" from="n1_5" to="n2_5" numLanes="1" speed="13.89"/>
    <edge id="h2_5" from="n2_5" to="n3_5" numLanes="1" speed="13.89"/>
    <edge id="h3_5" from="n3_5" to="n4_5" numLanes="1" speed="13.89"/>
    <edge id="h4_5" from="n4_5" to="n5_5" numLanes="1" speed="13.89"/>
    <edge id="h5_5" from="n5_5" to="n6_5" numLanes="1" speed="13.89"/>
    <edge id="h6_5" from="n6_5" to="n7_5" numLanes="1" speed="13.89"/>
    <edge id="h7_5" from="n7_5" to="n8_5" numLanes="1" speed="13.89"/>
    <edge id="h8_5" from="n8_5" to="n9_5" numLanes="1" speed="13.89"/>
    <edge id="h9_5" from="n9_5" to="n10_5" numLanes="1" speed="13.89"/>
    <edge id="h0_6" from="n0_6" to="n1_6" numLanes="1" speed="13.89"/>
    <edge id="h1_6" from="n1_6" to="n2_6" numLanes="1" speed="13.89"/>
    <edge id="h2_6" from="n2_6" to="n3_6" numLanes="1" speed="13.89"/>
    <edge id="h3_6" from="n3_6" to="n4_6" numLanes="1" speed="13.89"/>
    <edge id="h4_6" from="n4_6" to="n5_6" numLanes="1" speed="13.89"/>
    <edge id="h5_6" from="n5_6" to="n6_6" numLanes="1" speed="13.89"/>
    <edge id="h6_6" from="n6_6" to="n7_6" numLanes="1" speed="13.89"/>
    <edge id="h7_6" from="n7_6" to="n8_6" numLanes="1" speed="13.89"/>
    <edge id="h8_6" from="n8_6" to="n9_6" numLanes="1" speed="13.89"/>
    <edge id="h9_6" from="n9_6" to="n10_6" numLanes="1" speed="13.89"/>
    <edge id="h0_7" from="n0_7" to="n1_7" numLanes="1" speed="13.89"/>
    <edge id="h1_7" from="n1_7" to="n2_7" numLanes="1" speed="13.89"/>
    <edge id="h2_7" from="n2_7" to="n3_7" numLanes="1" speed="13.89"/>
    <edge id="h3_7" from="n3_7" to="n4_7" numLanes="1" speed="13.89"/>
    <edge id="h4_7" from="n4_7" to="n5_7" numLanes="1" speed="13.89"/>
    <edge id="h5_7" from="n5_7" to="n6_7" numLanes="1" speed="13.89"/>
    <edge id="h6_7" from="n6_7" to="n7_7" numLanes="1" speed="13.89"/>
    <edge id="h7_7" from="n7_7" to="n8_7" numLanes="1" speed="13.89"/>
    <edge id="h8_7" from="n8_7" to="n9_7" numLanes="1" speed="13.89"/>
    <edge id="h9_7" from="n9_7" to="n10_7" numLanes="1" speed="13.89"/>
    <edge id="h0_8" from="n0_8" to="n1_8" numLanes="1" speed="13.89"/>
    <edge id="h1_8" from="n1_8" to="n2_8" numLanes="1" speed="13.89"/>
    <edge id="h2_8" from="n2_8" to="n3_8" numLanes="1" speed="13.89"/>
    <edge id="h3_8" from="n3_8" to="n4_8" numLanes="1" speed="13.89"/>
    <edge id="h4_8" from="n4_8" to="n5_8" numLanes="1" speed="13.89"/>
    <edge id="h5_8" from="n5_8" to="n6_8" numLanes="1" speed="13.89"/>
    <edge id="h6_8" from="n6_8" to="n7_8" numLanes="1" speed="13.89"/>
    <edge id="h7_8" from="n7_8" to="n8_8" numLanes="1" speed="13.89"/>
    <edge id="h8_8" from="n8_8" to="n9_8" numLanes="1" speed="13.89"/>
    <edge id="h9_8" from="n9_8" to="n10_8" numLanes="1" speed="13.89"/>
    <edge id="h0_9" from="n0_9" to="n1_9" numLanes="1" speed="13.89"/>
    <edge id="h1_9" from="n1_9" to="n2_9" numLanes="1" speed="13.89"/>
    <edge id="h2_9" from="n2_9" to="n3_9" numLanes="1" speed="13.89"/>
    <edge id="h3_9" from="n3_9" to="n4_9" numLanes="1" speed="13.89"/>
    <edge id="h4_9" from="n4_9" to="n5_9" numLanes="1" speed="13.89"/>
    <edge id="h5_9" from="n5_9" to="n6_9" numLanes="1" speed="13.89"/>
    <edge id="h6_9" from="n6_9" to="n7_9" numLanes="1" speed="13.89"/>
    <edge id="h7_9" from="n7_9" to="n8_9" numLanes="1" speed="13.89"/>
    <edge id="h8_9" from="n8_9" to="n9_9" numLanes="1" speed="13.89"/>
    <edge id="h9_9" from="n9_9" to="n10_9" numLanes="1" speed="13.89"/>
    <edge id="h0_10" from="n0_10" to="n1_10" numLanes="1" speed="13.89"/>
    <edge id="h1_10" from="n1_10" to="n2_10" numLanes="1" speed="13.89"/>
    <edge id="h2_10" from="n2_10" to="n3_10" numLanes="1" speed="13.89"/>
    <edge id="h3_10" from="n3_10" to="n4_10" numLanes="1" speed="13.89"/>
    <edge id="h4_10" from="n4_10" to="n5_10" numLanes="1" speed="13.89"/>
    <edge id="h5_10" from="n5_10" to="n6_10" numLanes="1" speed="13.89"/>
    <edge id="h6_10" from="n6_10" to="n7_10" numLanes="1" speed="13.89"/>
    <edge id="h7_10" from="n7_10" to="n8_10" numLanes="1" speed="13.89"/>
    <edge id="h8_10" from="n8_10" to="n9_10" numLanes="1" speed="13.89"/>
    <edge id="h9_10" from="n9_10" to="n10_10" numLanes="1" speed="13.89"/>
    <edge id="v0_0" from="n0_0" to="n0_1" numLanes="1" speed="13.89"/>
    <edge id="v0_1" from="n0_1" to="n0_2" numLanes="1" speed="13.89"/>
    <edge id="v0_2" from="n0_2" to="n0_3" numLanes="1" speed="13.89"/>
    <edge id="v0_3" from="n0_3" to="n0_4" numLanes="1" speed="13.89"/>
    <edge id="v0_4" from="n0_4" to="n0_5" numLanes="1" speed="13.89"/>
    <edge id="v0_5" from="n0_5" to="n0_6" numLanes="1" speed="13.89"/>
    <edge id="v0_6" from="n0_6" to="n0_7" numLanes="1" speed="13.89"/>
    <edge id="v0_7" from="n0_7" to="n0_8" numLanes="1" speed="13.89"/>
    <edge id="v0_8" from="n0_8" to="n0_9" numLanes="1" speed="13.89"/>
    <edge id="v0_9" from="n0_9" to="n0_10" numLanes="1" speed="13.89"/>
    <edge id="v1_0" from="n1_0" to="n1_1" numLanes="1" speed="13.89"/>
    <edge id="v1_1" from="n1_1" to="n1_2" numLanes="1" speed="13.89"/>
    <edge id="v1_2" from="n1_2" to="n1_3" numLanes="1" speed="13.89"/>
    <edge id="v1_3" from="n1_3" to="n1_4" numLanes="1" speed="13.89"/>
    <edge id="v1_4" from="n1_4" to="n1_5" numLanes="1" speed="13.89"/>
    <edge id="v1_5" from="n1_5" to="n1_6" numLanes="1" speed="13.89"/>
    <edge id="v1_6" from="n1_6" to="n1_7" numLanes="1" speed="13.89"/>
    <edge id="v1_7" from="n1_7" to="n1_8" numLanes="1" speed="13.89"/>
    <edge id="v1_8" from="n1_8" to="n1_9" numLanes="1" speed="13.89"/>
    <edge id="v1_9" from="n1_9" to="n1_10" numLanes="1" speed="13.89"/>
    <edge id="v2_0" from="n2_0" to="n2_1" numLanes="1" speed="13.89"/>
    <edge id="v2_1" from="n2_1" to="n2_2" numLanes="1" speed="13.89"/>
    <edge id="v2_2" from="n2_2" to="n2_3" numLanes="1" speed="13.89"/>
    <edge id="v2_3" from="n2_3" to="n2_4" numLanes="1" speed="13.89"/>
    <edge id="v2_4" from="n2_4" to="n2_5" numLanes="1" speed="13.89"/>
    <edge id="v2_5" from="n2_5" to="n2_6" numLanes="1" speed="13.89"/>
    <edge id="v2_6" from="n2_6" to="n2_7" numLanes="1" speed="13.89"/>
    <edge id="v2_7" from="n2_7" to="n2_8" numLanes="1" speed="13.89"/>
    <edge id="v2_8" from="n2_8" to="n2_9" numLanes="1" speed="13.89"/>
    <edge id="v2_9" from="n2_9" to="n2_10" numLanes="1" speed="13.89"/>
    <edge id="v3_0" from="n3_0" to="n3_1" numLanes="1" speed="13.89"/>
    <edge id="v3_1" from="n3_1" to="n3_2" numLanes="1" speed="13.89"/>
    <edge id="v3_2" from="n3_2" to="n3_3" numLanes="1" speed="13.89"/>
    <edge id="v3_3" from="n3_3" to="n3_4" numLanes="1" speed="13.89"/>
    <edge id="v3_4" from="n3_4" to="n3_5" numLanes="1" speed="13.89"/>
    <edge id="v3_5" from="n3_5" to="n3_6" numLanes="1" speed="13.89"/>
    <edge id="v3_6" from="n3_6" to="n3_7" numLanes="1" speed="13.89"/>
    <edge id="v3_7" from="n3_7" to="n3_8" numLanes="1" speed="13.89"/>
    <edge id="v3_8" from="n3_8" to="n3_9" numLanes="1" speed="13.89"/>
    <edge id="v3_9" from="n3_9" to="n3_10" numLanes="1" speed="13.89"/>
    <edge id="v4_0" from="n4_0" to="n4_1" numLanes="1" speed="13.89"/>
    <edge id="v4_1" from="n4_1" to="n4_2" numLanes="1" speed="13.89"/>
    <edge id="v4_2" from="n4_2" to="n4_3" numLanes="1" speed="13.89"/>
    <edge id="v4_3" from="n4_3" to="n4_4" numLanes="1" speed="13.89"/>
    <edge id="v4_4" from="n4_4" to="n4_5" numLanes="1" speed="13.89"/>
    <edge id="v4_5" from="n4_5" to="n4_6" numLanes="1" speed="13.89"/>
    <edge id="v4_6" from="n4_6" to="n4_7" numLanes="1" speed="13.89"/>
    <edge id="v4_7" from="n4_7" to="n4_8" numLanes="1" speed="13.89"/>
    <edge id="v4_8" from="n4_8" to="n4_9" numLanes="1" speed="13.89"/>
    <edge id="v4_9" from="n4_9" to="n4_10" numLanes="1" speed="13.89"/>
    <edge id="v5_0" from="n5_0" to="n5_1" numLanes="1" speed="13.89"/>
    <edge id="v5_1" from="n5_1" to="n5_2" numLanes="1" speed="13.89"/>
    <edge id="v5_2" from="n5_2" to="n5_3" numLanes="1" speed="13.89"/>
    <edge id="v5_3" from="n5_3" to="n5_4" numLanes="1" speed="13.89"/>
    <edge id="v5_4" from="n5_4" to="n5_5" numLanes="1" speed="13.89"/>
    <edge id="v5_5" from="n5_5" to="n5_6" numLanes="1" speed="13.89"/>
    <edge id="v5_6" from="n5_6" to="n5_7" numLanes="1" speed="13.89"/>
    <edge id="v5_7" from="n5_7" to="n5_8" numLanes="1" speed="13.89"/>
    <edge id="v5_8" from="n5_8" to="n5_9" numLanes="1" speed="13.89"/>
    <edge id="v5_9" from="n5_9" to="n5_10" numLanes="1" speed="13.89"/>
    <edge id="v6_0" from="n6_0" to="n6_1" numLanes="1" speed="13.89"/>
    <edge id="v6_1" from="n6_1" to="n6_2" numLanes="1" speed="13.89"/>
    <edge id="v6_2" from="n6_2" to="n6_3" numLanes="1" speed="13.89"/>
    <edge id="v6_3" from="n6_3" to="n6_4" numLanes="1" speed="13.89"/>
    <edge id="v6_4" from="n6_4" to="n6_5" numLanes="1" speed="13.89"/>
    <edge id="v6_5" from="n6_5" to="n6_6" numLanes="1" speed="13.89"/>
    <edge id="v6_6" from="n6_6" to="n6_7" numLanes="1" speed="13.89"/>
    <edge id="v6_7" from="n6_7" to="n6_8" numLanes="1" speed="13.89"/>
    <edge id="v6_8" from="n6_8" to="n6_9" numLanes="1" speed="13.89"/>
    <edge id="v6_9" from="n6_9" to="n6_10" numLanes="1" speed="13.89"/>
    <edge id="v7_0" from="n7_0" to="n7_1" numLanes="1" speed="13.89"/>
    <edge id="v7_1" from="n7_1" to="n7_2" numLanes="1" speed="13.89"/>
    <edge id="v7_2" from="n7_2" to="n7_3" numLanes="1" speed="13.89"/>
    <edge id="v7_3" from="n7_3" to="n7_4" numLanes="1" speed="13.89"/>
    <edge id="v7_4" from="n7_4" to="n7_5" numLanes="1" speed="13.89"/>
    <edge id="v7_5" from="n7_5" to="n7_6" numLanes="1" speed="13.89"/>
    <edge id="v7_6" from="n7_6" to="n7_7" numLanes="1" speed="13.89"/>
    <edge id="v7_7" from="n7_7" to="n7_8" numLanes="1" speed="13.89"/>
    <edge id="v7_8" from="n7_8" to="n7_9" numLanes="1" speed="13.89"/>
    <edge id="v7_9" from="n7_9" to="n7_10" numLanes="1" speed="13.89"/>
    <edge id="v8_0" from="n8_0" to="n8_1" numLanes="1" speed="13.89"/>
    <edge id="v8_1" from="n8_1" to="n8_2" numLanes="1" speed="13.89"/>
    <edge id="v8_2" from="n8_2" to="n8_3" numLanes="1" speed="13.89"/>
    <edge id="v8_3" from="n8_3" to="n8_4" numLanes="1" speed="13.89"/>
    <edge id="v8_4" from="n8_4" to="n8_5" numLanes="1" speed="13.89"/>
    <edge id="v8_5" from="n8_5" to="n8_6" numLanes="1" speed="13.89"/>
    <edge id="v8_6" from="n8_6" to="n8_7" numLanes="1" speed="13.89"/>
    <edge id="v8_7" from="n8_7" to="n8_8" numLanes="1" speed="13.89"/>
    <edge id="v8_8" from="n8_8" to="n8_9" numLanes="1" speed="13.89"/>
    <edge id="v8_9" from="n8_9" to="n8_10" numLanes="1" speed="13.89"/>
    <edge id="v9_0" from="n9_0" to="n9_1" numLanes="1" speed="13.89"/>
    <edge id="v9_1" from="n9_1" to="n9_2" numLanes="1" speed="13.89"/>
    <edge id="v9_2" from="n9_2" to="n9_3" numLanes="1" speed="13.89"/>
    <edge id="v9_3" from="n9_3" to="n9_4" numLanes="1" speed="13.89"/>
    <edge id="v9_4" from="n9_4" to="n9_5" numLanes="1" speed="13.89"/>
    <edge id="v9_5" from="n9_5" to="n9_6" numLanes="1" speed="13.89"/>
    <edge id="v9_6" from="n9_6" to="n9_7" numLanes="1" speed="13.89"/>
    <edge id="v9_7" from="n9_7" to="n9_8" numLanes="1" speed="13.89"/>
    <edge id="v9_8" from="n9_8" to="n9_9" numLanes="1" speed="13.89"/>
    <edge id="v9_9" from="n9_9" to="n9_10" numLanes="1" speed="13.89"/>
    <edge id="v10_0" from="n10_0" to="n10_1" numLanes="1" speed="13.89"/>
    <edge id="v10_1" from="n10_1" to="n10_2" numLanes="1" speed="13.89"/>
    <edge id="v10_2" from="n10_2" to="n10_3" numLanes="1" speed="13.89"/>
    <edge id="v10_3" from="n10_3" to="n10_4" numLanes="1" speed="13.89"/>
    <edge id="v10_4" from="n10_4" to="n10_5" numLanes="1" speed="13.89"/>
    <edge id="v10_5" from="n10_5" to="n10_6" numLanes="1" speed="13.89"/>
    <edge id="v10_6" from="n10_6" to="n10_7" numLanes="1" speed="13.89"/>
    <edge id="v10_7" from="n10_7" to="n10_8" numLanes="1" speed="13.89"/>
    <edge id="v10_8" from="n10_8" to="n10_9" numLanes="1" speed="13.89"/>
    <edge id="v10_9" from="n10_9" to="n10_10" numLanes="1" speed="13.89"/>
</edges>
